<?xml version="1.0" encoding="UTF-8"?>

<!-- generated on 2025-07-15 14:52:42 by Eclipse SUMO netconvert Version 1.22.0
<netconvertConfiguration xmlns:xsi="http://www.w3.org/2001/XMLSchema-instance" xsi:noNamespaceSchemaLocation="http://sumo.dlr.de/xsd/netconvertConfiguration.xsd">

    <input>
        <type-files value="osmNetconvert.typ.xml"/>
        <osm-files value="map.osm"/>
    </input>

    <output>
        <output-file value="test.net.xml"/>
    </output>

    <projection>
        <proj.utm value="true"/>
    </projection>

    <report>
        <xml-validation value="never"/>
    </report>

</netconvertConfiguration>
-->

<net version="1.20" junctionCornerDetail="5" limitTurnSpeed="5.50" xmlns:xsi="http://www.w3.org/2001/XMLSchema-instance" xsi:noNamespaceSchemaLocation="http://sumo.dlr.de/xsd/net_file.xsd">

    <location netOffset="-464202.47,-1347189.42" convBoundary="0.00,0.00,8802.40,12906.81" origBoundary="8.670786,12.186424,8.751799,12.303137" projParameter="+proj=utm +zone=32 +ellps=WGS84 +datum=WGS84 +units=m +no_defs"/>

    <type id="highway.residential" priority="3" numLanes="1" speed="13.89" disallow="tram rail_urban rail rail_electric rail_fast ship container cable_car subway aircraft wheelchair scooter drone" oneway="0"/>
    <type id="highway.secondary" priority="11" numLanes="1" speed="27.78" disallow="tram rail_urban rail rail_electric rail_fast ship container cable_car subway aircraft wheelchair scooter drone" oneway="0"/>
    <type id="highway.service" priority="1" numLanes="1" speed="5.56" allow="pedestrian delivery bicycle" oneway="0"/>
    <type id="highway.unclassified" priority="4" numLanes="1" speed="13.89" disallow="tram rail_urban rail rail_electric rail_fast ship container cable_car subway aircraft wheelchair scooter drone" oneway="0"/>

    <edge id=":2764154463_0" function="internal">
        <lane id=":2764154463_0_0" index="0" disallow="tram rail_urban rail rail_electric rail_fast ship container cable_car subway aircraft wheelchair scooter drone" speed="3.65" length="4.67" shape="379.80,1.33 379.25,-0.01 379.37,-0.90 380.15,-1.33 381.59,-1.33"/>
    </edge>
    <edge id=":2874435095_0" function="internal">
        <lane id=":2874435095_0_0" index="0" disallow="tram rail_urban rail rail_electric rail_fast ship container cable_car subway aircraft wheelchair scooter drone" speed="6.61" length="8.63" shape="4094.97,4431.46 4092.68,4430.92 4090.71,4431.19 4089.05,4432.26 4087.72,4434.16"/>
    </edge>
    <edge id=":2874435095_1" function="internal">
        <lane id=":2874435095_1_0" index="0" disallow="tram rail_urban rail rail_electric rail_fast ship container cable_car subway aircraft wheelchair scooter drone" speed="8.02" length="13.46" shape="4094.97,4431.46 4091.78,4429.68 4089.85,4427.28 4089.17,4424.28 4089.75,4420.67"/>
    </edge>
    <edge id=":2874435095_2" function="internal">
        <lane id=":2874435095_2_0" index="0" disallow="tram rail_urban rail rail_electric rail_fast ship container cable_car subway aircraft wheelchair scooter drone" speed="3.65" length="4.67" shape="4094.97,4431.46 4094.14,4430.28 4094.06,4429.39 4094.72,4428.79 4096.13,4428.48"/>
    </edge>
    <edge id=":2874435095_3" function="internal">
        <lane id=":2874435095_3_0" index="0" disallow="tram rail_urban rail rail_electric rail_fast ship container cable_car subway aircraft wheelchair scooter drone" speed="6.52" length="8.57" shape="4092.81,4421.61 4092.44,4423.91 4092.87,4425.82 4094.10,4427.34 4096.13,4428.48"/>
    </edge>
    <edge id=":2874435095_4" function="internal">
        <lane id=":2874435095_4_0" index="0" disallow="tram rail_urban rail rail_electric rail_fast ship container cable_car subway aircraft wheelchair scooter drone" speed="27.78" length="13.55" shape="4092.81,4421.61 4091.71,4424.96 4090.56,4428.01 4089.27,4430.99 4087.72,4434.16"/>
    </edge>
    <edge id=":2874435095_5" function="internal">
        <lane id=":2874435095_5_0" index="0" disallow="tram rail_urban rail rail_electric rail_fast ship container cable_car subway aircraft wheelchair scooter drone" speed="3.65" length="1.44" shape="4092.81,4421.61 4091.69,4422.53"/>
    </edge>
    <edge id=":2874435095_9" function="internal">
        <lane id=":2874435095_9_0" index="0" disallow="tram rail_urban rail rail_electric rail_fast ship container cable_car subway aircraft wheelchair scooter drone" speed="3.65" length="3.23" shape="4091.69,4422.53 4090.81,4422.67 4090.16,4422.05 4089.75,4420.67"/>
    </edge>
    <edge id=":2874435095_6" function="internal">
        <lane id=":2874435095_6_0" index="0" disallow="tram rail_urban rail rail_electric rail_fast ship container cable_car subway aircraft wheelchair scooter drone" speed="27.78" length="13.00" shape="4084.87,4432.70 4086.39,4429.61 4087.61,4426.81 4088.68,4423.94 4089.75,4420.67"/>
    </edge>
    <edge id=":2874435095_7" function="internal">
        <lane id=":2874435095_7_0" index="0" disallow="tram rail_urban rail rail_electric rail_fast ship container cable_car subway aircraft wheelchair scooter drone" speed="8.10" length="3.76" shape="4084.87,4432.70 4086.95,4429.75 4087.07,4429.67"/>
    </edge>
    <edge id=":2874435095_8" function="internal">
        <lane id=":2874435095_8_0" index="0" disallow="tram rail_urban rail rail_electric rail_fast ship container cable_car subway aircraft wheelchair scooter drone" speed="3.65" length="1.44" shape="4084.87,4432.70 4086.13,4432.00"/>
    </edge>
    <edge id=":2874435095_10" function="internal">
        <lane id=":2874435095_10_0" index="0" disallow="tram rail_urban rail rail_electric rail_fast ship container cable_car subway aircraft wheelchair scooter drone" speed="8.10" length="9.66" shape="4087.07,4429.67 4089.52,4428.06 4092.58,4427.64 4096.13,4428.48"/>
    </edge>
    <edge id=":2874435095_11" function="internal">
        <lane id=":2874435095_11_0" index="0" disallow="tram rail_urban rail rail_electric rail_fast ship container cable_car subway aircraft wheelchair scooter drone" speed="3.65" length="3.23" shape="4086.13,4432.00 4087.02,4432.00 4087.55,4432.72 4087.72,4434.16"/>
    </edge>
    <edge id=":2874435098_0" function="internal">
        <lane id=":2874435098_0_0" index="0" disallow="tram rail_urban rail rail_electric rail_fast ship container cable_car subway aircraft wheelchair scooter drone" speed="27.78" length="14.03" shape="4302.98,4514.00 4299.75,4512.40 4296.65,4510.97 4293.52,4509.60 4290.19,4508.24"/>
    </edge>
    <edge id=":2874435098_1" function="internal">
        <lane id=":2874435098_1_0" index="0" disallow="tram rail_urban rail rail_electric rail_fast ship container cable_car subway aircraft wheelchair scooter drone" speed="8.63" length="3.76" shape="4302.98,4514.00 4300.02,4511.89 4299.96,4511.78"/>
    </edge>
    <edge id=":2874435098_2" function="internal">
        <lane id=":2874435098_2_0" index="0" disallow="tram rail_urban rail rail_electric rail_fast ship container cable_car subway aircraft wheelchair scooter drone" speed="3.65" length="1.44" shape="4302.98,4514.00 4302.27,4512.74"/>
    </edge>
    <edge id=":2874435098_9" function="internal">
        <lane id=":2874435098_9_0" index="0" disallow="tram rail_urban rail rail_electric rail_fast ship container cable_car subway aircraft wheelchair scooter drone" speed="8.63" length="10.50" shape="4299.96,4511.78 4298.27,4509.16 4297.71,4505.82 4298.34,4501.87"/>
    </edge>
    <edge id=":2874435098_10" function="internal">
        <lane id=":2874435098_10_0" index="0" disallow="tram rail_urban rail rail_electric rail_fast ship container cable_car subway aircraft wheelchair scooter drone" speed="3.65" length="3.23" shape="4302.27,4512.74 4302.28,4511.85 4303.00,4511.32 4304.43,4511.15"/>
    </edge>
    <edge id=":2874435098_3" function="internal">
        <lane id=":2874435098_3_0" index="0" disallow="tram rail_urban rail rail_electric rail_fast ship container cable_car subway aircraft wheelchair scooter drone" speed="7.24" length="9.78" shape="4301.41,4502.76 4300.95,4505.53 4301.30,4507.84 4302.46,4509.72 4304.43,4511.15"/>
    </edge>
    <edge id=":2874435098_4" function="internal">
        <lane id=":2874435098_4_0" index="0" disallow="tram rail_urban rail rail_electric rail_fast ship container cable_car subway aircraft wheelchair scooter drone" speed="7.83" length="14.59" shape="4301.41,4502.76 4299.74,4506.46 4297.32,4508.60 4294.13,4509.19 4290.19,4508.24"/>
    </edge>
    <edge id=":2874435098_5" function="internal">
        <lane id=":2874435098_5_0" index="0" disallow="tram rail_urban rail rail_electric rail_fast ship container cable_car subway aircraft wheelchair scooter drone" speed="3.65" length="4.67" shape="4301.41,4502.76 4300.31,4503.69 4299.43,4503.85 4298.77,4503.25 4298.34,4501.87"/>
    </edge>
    <edge id=":2874435098_6" function="internal">
        <lane id=":2874435098_6_0" index="0" disallow="tram rail_urban rail rail_electric rail_fast ship container cable_car subway aircraft wheelchair scooter drone" speed="6.30" length="9.04" shape="4291.38,4505.27 4293.83,4505.86 4295.80,4505.49 4297.30,4504.16 4298.34,4501.87"/>
    </edge>
    <edge id=":2874435098_7" function="internal">
        <lane id=":2874435098_7_0" index="0" disallow="tram rail_urban rail rail_electric rail_fast ship container cable_car subway aircraft wheelchair scooter drone" speed="27.78" length="14.32" shape="4291.38,4505.27 4294.75,4506.65 4297.97,4508.06 4301.16,4509.53 4304.43,4511.15"/>
    </edge>
    <edge id=":2874435098_8" function="internal">
        <lane id=":2874435098_8_0" index="0" disallow="tram rail_urban rail rail_electric rail_fast ship container cable_car subway aircraft wheelchair scooter drone" speed="3.65" length="1.44" shape="4291.38,4505.27 4292.20,4506.46"/>
    </edge>
    <edge id=":2874435098_11" function="internal">
        <lane id=":2874435098_11_0" index="0" disallow="tram rail_urban rail rail_electric rail_fast ship container cable_car subway aircraft wheelchair scooter drone" speed="3.65" length="3.23" shape="4292.20,4506.46 4292.27,4507.35 4291.60,4507.94 4290.19,4508.24"/>
    </edge>
    <edge id=":2874442201_0" function="internal">
        <lane id=":2874442201_0_0" index="0" disallow="tram rail_urban rail rail_electric rail_fast ship container cable_car subway aircraft wheelchair scooter drone" speed="27.78" length="15.45" shape="4384.43,4555.83 4370.80,4548.56"/>
    </edge>
    <edge id=":2874442201_1" function="internal">
        <lane id=":2874442201_1_0" index="0" disallow="tram rail_urban rail rail_electric rail_fast ship container cable_car subway aircraft wheelchair scooter drone" speed="11.55" length="3.26" shape="4384.43,4555.83 4381.92,4553.76"/>
    </edge>
    <edge id=":2874442201_2" function="internal">
        <lane id=":2874442201_2_0" index="0" disallow="tram rail_urban rail rail_electric rail_fast ship container cable_car subway aircraft wheelchair scooter drone" speed="3.65" length="1.44" shape="4384.43,4555.83 4383.79,4554.54"/>
    </edge>
    <edge id=":2874442201_9" function="internal">
        <lane id=":2874442201_9_0" index="0" disallow="tram rail_urban rail rail_electric rail_fast ship container cable_car subway aircraft wheelchair scooter drone" speed="11.55" length="12.70" shape="4381.92,4553.76 4379.96,4550.75 4378.55,4546.82 4377.70,4541.95"/>
    </edge>
    <edge id=":2874442201_10" function="internal">
        <lane id=":2874442201_10_0" index="0" disallow="tram rail_urban rail rail_electric rail_fast ship container cable_car subway aircraft wheelchair scooter drone" speed="3.65" length="3.23" shape="4383.79,4554.54 4383.84,4553.64 4384.59,4553.15 4386.03,4553.05"/>
    </edge>
    <edge id=":2874442201_3" function="internal">
        <lane id=":2874442201_3_0" index="0" disallow="tram rail_urban rail rail_electric rail_fast ship container cable_car subway aircraft wheelchair scooter drone" speed="10.45" length="12.96" shape="4380.89,4541.61 4381.57,4545.72 4382.66,4548.99 4384.14,4551.44 4386.03,4553.05"/>
    </edge>
    <edge id=":2874442201_4" function="internal">
        <lane id=":2874442201_4_0" index="0" disallow="tram rail_urban rail rail_electric rail_fast ship container cable_car subway aircraft wheelchair scooter drone" speed="7.39" length="17.21" shape="4380.89,4541.61 4380.77,4546.84 4379.05,4549.75 4375.72,4550.32 4370.80,4548.56"/>
    </edge>
    <edge id=":2874442201_5" function="internal">
        <lane id=":2874442201_5_0" index="0" disallow="tram rail_urban rail rail_electric rail_fast ship container cable_car subway aircraft wheelchair scooter drone" speed="3.65" length="4.67" shape="4380.89,4541.61 4380.22,4542.89 4379.47,4543.38 4378.63,4543.06 4377.70,4541.95"/>
    </edge>
    <edge id=":2874442201_6" function="internal">
        <lane id=":2874442201_6_0" index="0" disallow="tram rail_urban rail rail_electric rail_fast ship container cable_car subway aircraft wheelchair scooter drone" speed="5.61" length="9.30" shape="4372.25,4545.71 4374.91,4546.66 4376.71,4546.35 4377.64,4544.78 4377.70,4541.95"/>
    </edge>
    <edge id=":2874442201_7" function="internal">
        <lane id=":2874442201_7_0" index="0" disallow="tram rail_urban rail rail_electric rail_fast ship container cable_car subway aircraft wheelchair scooter drone" speed="27.78" length="15.61" shape="4372.25,4545.71 4386.03,4553.05"/>
    </edge>
    <edge id=":2874442201_8" function="internal">
        <lane id=":2874442201_8_0" index="0" disallow="tram rail_urban rail rail_electric rail_fast ship container cable_car subway aircraft wheelchair scooter drone" speed="3.65" length="1.44" shape="4372.25,4545.71 4372.96,4546.97"/>
    </edge>
    <edge id=":2874442201_11" function="internal">
        <lane id=":2874442201_11_0" index="0" disallow="tram rail_urban rail rail_electric rail_fast ship container cable_car subway aircraft wheelchair scooter drone" speed="3.65" length="3.23" shape="4372.96,4546.97 4372.95,4547.86 4372.23,4548.39 4370.80,4548.56"/>
    </edge>
    <edge id=":2874442202_0" function="internal">
        <lane id=":2874442202_0_0" index="0" disallow="tram rail_urban rail rail_electric rail_fast ship container cable_car subway aircraft wheelchair scooter drone" speed="27.78" length="14.28" shape="4439.28,4587.65 4427.03,4580.31"/>
    </edge>
    <edge id=":2874442202_1" function="internal">
        <lane id=":2874442202_1_0" index="0" disallow="tram rail_urban rail rail_electric rail_fast ship container cable_car subway aircraft wheelchair scooter drone" speed="7.84" length="4.05" shape="4439.28,4587.65 4436.18,4585.04"/>
    </edge>
    <edge id=":2874442202_2" function="internal">
        <lane id=":2874442202_2_0" index="0" disallow="tram rail_urban rail rail_electric rail_fast ship container cable_car subway aircraft wheelchair scooter drone" speed="3.65" length="1.44" shape="4439.28,4587.65 4438.68,4586.34"/>
    </edge>
    <edge id=":2874442202_9" function="internal">
        <lane id=":2874442202_9_0" index="0" disallow="tram rail_urban rail rail_electric rail_fast ship container cable_car subway aircraft wheelchair scooter drone" speed="7.84" length="10.52" shape="4436.18,4585.04 4434.77,4582.13 4435.05,4578.90 4437.03,4575.37"/>
    </edge>
    <edge id=":2874442202_10" function="internal">
        <lane id=":2874442202_10_0" index="0" disallow="tram rail_urban rail rail_electric rail_fast ship container cable_car subway aircraft wheelchair scooter drone" speed="3.65" length="3.23" shape="4438.68,4586.34 4438.77,4585.45 4439.53,4584.98 4440.97,4584.93"/>
    </edge>
    <edge id=":2874442202_3" function="internal">
        <lane id=":2874442202_3_0" index="0" disallow="tram rail_urban rail rail_electric rail_fast ship container cable_car subway aircraft wheelchair scooter drone" speed="6.31" length="9.04" shape="4439.57,4577.31 4438.35,4579.50 4438.17,4581.51 4439.05,4583.31 4440.97,4584.93"/>
    </edge>
    <edge id=":2874442202_4" function="internal">
        <lane id=":2874442202_4_0" index="0" disallow="tram rail_urban rail rail_electric rail_fast ship container cable_car subway aircraft wheelchair scooter drone" speed="8.44" length="14.31" shape="4439.57,4577.31 4436.76,4580.16 4433.73,4581.61 4430.49,4581.66 4427.03,4580.31"/>
    </edge>
    <edge id=":2874442202_5" function="internal">
        <lane id=":2874442202_5_0" index="0" disallow="tram rail_urban rail rail_electric rail_fast ship container cable_car subway aircraft wheelchair scooter drone" speed="3.65" length="4.67" shape="4439.57,4577.31 4438.21,4577.78 4437.33,4577.61 4436.93,4576.81 4437.03,4575.37"/>
    </edge>
    <edge id=":2874442202_6" function="internal">
        <lane id=":2874442202_6_0" index="0" disallow="tram rail_urban rail rail_electric rail_fast ship container cable_car subway aircraft wheelchair scooter drone" speed="7.02" length="9.62" shape="4428.63,4577.54 4430.91,4578.41 4433.07,4578.34 4435.11,4577.33 4437.03,4575.37"/>
    </edge>
    <edge id=":2874442202_7" function="internal">
        <lane id=":2874442202_7_0" index="0" disallow="tram rail_urban rail rail_electric rail_fast ship container cable_car subway aircraft wheelchair scooter drone" speed="27.78" length="14.38" shape="4428.63,4577.54 4440.97,4584.93"/>
    </edge>
    <edge id=":2874442202_8" function="internal">
        <lane id=":2874442202_8_0" index="0" disallow="tram rail_urban rail rail_electric rail_fast ship container cable_car subway aircraft wheelchair scooter drone" speed="3.65" length="1.44" shape="4428.63,4577.54 4429.27,4578.83"/>
    </edge>
    <edge id=":2874442202_11" function="internal">
        <lane id=":2874442202_11_0" index="0" disallow="tram rail_urban rail rail_electric rail_fast ship container cable_car subway aircraft wheelchair scooter drone" speed="3.65" length="3.23" shape="4429.27,4578.83 4429.22,4579.72 4428.47,4580.22 4427.03,4580.31"/>
    </edge>
    <edge id=":2874442208_0" function="internal">
        <lane id=":2874442208_0_0" index="0" disallow="tram rail_urban rail rail_electric rail_fast ship container cable_car subway aircraft wheelchair scooter drone" speed="27.78" length="19.47" shape="4630.07,4699.50 4613.09,4689.96"/>
    </edge>
    <edge id=":2874442208_1" function="internal">
        <lane id=":2874442208_1_0" index="0" disallow="tram rail_urban rail rail_electric rail_fast ship container cable_car subway aircraft wheelchair scooter drone" speed="17.02" length="3.76" shape="4630.07,4699.50 4627.20,4697.06"/>
    </edge>
    <edge id=":2874442208_2" function="internal">
        <lane id=":2874442208_2_0" index="0" disallow="tram rail_urban rail rail_electric rail_fast ship container cable_car subway aircraft wheelchair scooter drone" speed="3.65" length="1.44" shape="4630.07,4699.50 4629.37,4698.23"/>
    </edge>
    <edge id=":2874442208_9" function="internal">
        <lane id=":2874442208_9_0" index="0" disallow="tram rail_urban rail rail_electric rail_fast ship container cable_car subway aircraft wheelchair scooter drone" speed="17.02" length="16.09" shape="4627.20,4697.06 4626.72,4696.66 4623.51,4692.32 4620.74,4687.58 4618.67,4683.50"/>
    </edge>
    <edge id=":2874442208_10" function="internal">
        <lane id=":2874442208_10_0" index="0" disallow="tram rail_urban rail rail_electric rail_fast ship container cable_car subway aircraft wheelchair scooter drone" speed="3.65" length="3.23" shape="4629.37,4698.23 4629.39,4697.34 4630.11,4696.81 4631.54,4696.66"/>
    </edge>
    <edge id=":2874442208_3" function="internal">
        <lane id=":2874442208_3_0" index="0" disallow="tram rail_urban rail rail_electric rail_fast ship container cable_car subway aircraft wheelchair scooter drone" speed="16.17" length="17.87" shape="4621.56,4682.12 4623.40,4685.97 4625.70,4690.21 4628.42,4694.05 4631.54,4696.66"/>
    </edge>
    <edge id=":2874442208_4" function="internal">
        <lane id=":2874442208_4_0" index="0" disallow="tram rail_urban rail rail_electric rail_fast ship container cable_car subway aircraft wheelchair scooter drone" speed="7.67" length="22.53" shape="4621.56,4682.12 4624.19,4689.20 4623.65,4692.87 4619.96,4693.12 4613.09,4689.96"/>
    </edge>
    <edge id=":2874442208_5" function="internal">
        <lane id=":2874442208_5_0" index="0" disallow="tram rail_urban rail rail_electric rail_fast ship container cable_car subway aircraft wheelchair scooter drone" speed="3.65" length="4.67" shape="4621.56,4682.12 4621.35,4683.54 4620.80,4684.25 4619.91,4684.24 4618.67,4683.50"/>
    </edge>
    <edge id=":2874442208_6" function="internal">
        <lane id=":2874442208_6_0" index="0" disallow="tram rail_urban rail rail_electric rail_fast ship container cable_car subway aircraft wheelchair scooter drone" speed="5.47" length="10.59" shape="4614.69,4687.18 4617.92,4688.67 4619.66,4688.55 4619.91,4686.83 4618.67,4683.50"/>
    </edge>
    <edge id=":2874442208_7" function="internal">
        <lane id=":2874442208_7_0" index="0" disallow="tram rail_urban rail rail_electric rail_fast ship container cable_car subway aircraft wheelchair scooter drone" speed="27.78" length="19.33" shape="4614.69,4687.18 4631.54,4696.66"/>
    </edge>
    <edge id=":2874442208_8" function="internal">
        <lane id=":2874442208_8_0" index="0" disallow="tram rail_urban rail rail_electric rail_fast ship container cable_car subway aircraft wheelchair scooter drone" speed="3.65" length="1.44" shape="4614.69,4687.18 4615.33,4688.48"/>
    </edge>
    <edge id=":2874442208_11" function="internal">
        <lane id=":2874442208_11_0" index="0" disallow="tram rail_urban rail rail_electric rail_fast ship container cable_car subway aircraft wheelchair scooter drone" speed="3.65" length="3.23" shape="4615.33,4688.48 4615.28,4689.37 4614.53,4689.86 4613.09,4689.96"/>
    </edge>
    <edge id=":2874442260_0" function="internal">
        <lane id=":2874442260_0_0" index="0" disallow="tram rail_urban rail rail_electric rail_fast ship container cable_car subway aircraft wheelchair scooter drone" speed="3.65" length="4.67" shape="8802.39,5597.75 8803.59,5598.54 8804.00,5599.33 8803.60,5600.14 8802.41,5600.95"/>
    </edge>
    <edge id=":2874451102_0" function="internal">
        <lane id=":2874451102_0_0" index="0" disallow="tram rail_urban rail rail_electric rail_fast ship container cable_car subway aircraft wheelchair scooter drone" speed="27.78" length="22.86" shape="3966.04,4123.96 3948.32,4109.51"/>
    </edge>
    <edge id=":2874451102_1" function="internal">
        <lane id=":2874451102_1_0" index="0" disallow="tram rail_urban rail rail_electric rail_fast ship container cable_car subway aircraft wheelchair scooter drone" speed="6.24" length="2.36" shape="3966.04,4123.96 3964.78,4121.96"/>
    </edge>
    <edge id=":2874451102_2" function="internal">
        <lane id=":2874451102_2_0" index="0" disallow="tram rail_urban rail rail_electric rail_fast ship container cable_car subway aircraft wheelchair scooter drone" speed="3.65" length="1.44" shape="3966.04,4123.96 3965.60,4122.58"/>
    </edge>
    <edge id=":2874451102_9" function="internal">
        <lane id=":2874451102_9_0" index="0" disallow="tram rail_urban rail rail_electric rail_fast ship container cable_car subway aircraft wheelchair scooter drone" speed="6.24" length="12.90" shape="3964.78,4121.96 3963.90,4120.57 3964.35,4116.98 3966.86,4114.36 3970.84,4113.89"/>
    </edge>
    <edge id=":2874451102_10" function="internal">
        <lane id=":2874451102_10_0" index="0" disallow="tram rail_urban rail rail_electric rail_fast ship container cable_car subway aircraft wheelchair scooter drone" speed="3.65" length="3.23" shape="3965.60,4122.58 3965.78,4121.71 3966.59,4121.33 3968.03,4121.45"/>
    </edge>
    <edge id=":2874451102_3" function="internal">
        <lane id=":2874451102_3_0" index="0" disallow="tram rail_urban rail rail_electric rail_fast ship container cable_car subway aircraft wheelchair scooter drone" speed="5.62" length="12.01" shape="3970.14,4117.02 3966.00,4116.40 3964.26,4116.93 3964.94,4118.62 3968.03,4121.45"/>
    </edge>
    <edge id=":2874451102_4" function="internal">
        <lane id=":2874451102_4_0" index="0" disallow="tram rail_urban rail rail_electric rail_fast ship container cable_car subway aircraft wheelchair scooter drone" speed="20.84" length="23.20" shape="3970.14,4117.02 3965.20,4115.86 3958.80,4114.11 3952.61,4111.94 3948.32,4109.51"/>
    </edge>
    <edge id=":2874451102_5" function="internal">
        <lane id=":2874451102_5_0" index="0" disallow="tram rail_urban rail rail_electric rail_fast ship container cable_car subway aircraft wheelchair scooter drone" speed="3.65" length="4.67" shape="3970.14,4117.02 3969.15,4115.98 3968.93,4115.11 3969.49,4114.41 3970.84,4113.89"/>
    </edge>
    <edge id=":2874451102_6" function="internal">
        <lane id=":2874451102_6_0" index="0" disallow="tram rail_urban rail rail_electric rail_fast ship container cable_car subway aircraft wheelchair scooter drone" speed="20.84" length="21.60" shape="3950.47,4107.13 3954.53,4109.45 3960.21,4111.36 3966.12,4112.85 3970.84,4113.89"/>
    </edge>
    <edge id=":2874451102_7" function="internal">
        <lane id=":2874451102_7_0" index="0" disallow="tram rail_urban rail rail_electric rail_fast ship container cable_car subway aircraft wheelchair scooter drone" speed="27.78" length="22.66" shape="3950.47,4107.13 3968.03,4121.45"/>
    </edge>
    <edge id=":2874451102_8" function="internal">
        <lane id=":2874451102_8_0" index="0" disallow="tram rail_urban rail rail_electric rail_fast ship container cable_car subway aircraft wheelchair scooter drone" speed="3.65" length="1.44" shape="3950.47,4107.13 3950.82,4108.53"/>
    </edge>
    <edge id=":2874451102_11" function="internal">
        <lane id=":2874451102_11_0" index="0" disallow="tram rail_urban rail rail_electric rail_fast ship container cable_car subway aircraft wheelchair scooter drone" speed="3.65" length="3.23" shape="3950.82,4108.53 3950.58,4109.39 3949.75,4109.72 3948.32,4109.51"/>
    </edge>
    <edge id=":2874451103_0" function="internal">
        <lane id=":2874451103_0_0" index="0" disallow="tram rail_urban rail rail_electric rail_fast ship container cable_car subway aircraft wheelchair scooter drone" speed="5.70" length="9.21" shape="4051.10,4191.98 4048.80,4190.46 4046.95,4190.31 4045.55,4191.52 4044.58,4194.10"/>
    </edge>
    <edge id=":2874451103_1" function="internal">
        <lane id=":2874451103_1_0" index="0" disallow="tram rail_urban rail rail_electric rail_fast ship container cable_car subway aircraft wheelchair scooter drone" speed="27.78" length="15.29" shape="4051.10,4191.98 4039.39,4182.14"/>
    </edge>
    <edge id=":2874451103_2" function="internal">
        <lane id=":2874451103_2_0" index="0" disallow="tram rail_urban rail rail_electric rail_fast ship container cable_car subway aircraft wheelchair scooter drone" speed="3.65" length="1.44" shape="4051.10,4191.98 4050.72,4190.59"/>
    </edge>
    <edge id=":2874451103_9" function="internal">
        <lane id=":2874451103_9_0" index="0" disallow="tram rail_urban rail rail_electric rail_fast ship container cable_car subway aircraft wheelchair scooter drone" speed="3.65" length="3.23" shape="4050.72,4190.59 4050.94,4189.72 4051.77,4189.38 4053.20,4189.57"/>
    </edge>
    <edge id=":2874451103_3" function="internal">
        <lane id=":2874451103_3_0" index="0" disallow="tram rail_urban rail rail_electric rail_fast ship container cable_car subway aircraft wheelchair scooter drone" speed="27.78" length="15.44" shape="4041.38,4179.63 4053.20,4189.57"/>
    </edge>
    <edge id=":2874451103_4" function="internal">
        <lane id=":2874451103_4_0" index="0" disallow="tram rail_urban rail rail_electric rail_fast ship container cable_car subway aircraft wheelchair scooter drone" speed="10.20" length="3.75" shape="4041.38,4179.63 4043.65,4182.17 4043.77,4182.50"/>
    </edge>
    <edge id=":2874451103_5" function="internal">
        <lane id=":2874451103_5_0" index="0" disallow="tram rail_urban rail rail_electric rail_fast ship container cable_car subway aircraft wheelchair scooter drone" speed="3.65" length="1.44" shape="4041.38,4179.63 4041.82,4181.00"/>
    </edge>
    <edge id=":2874451103_10" function="internal">
        <lane id=":2874451103_10_0" index="0" disallow="tram rail_urban rail rail_electric rail_fast ship container cable_car subway aircraft wheelchair scooter drone" speed="10.20" length="11.88" shape="4043.77,4182.50 4044.93,4185.43 4045.25,4189.41 4044.58,4194.10"/>
    </edge>
    <edge id=":2874451103_11" function="internal">
        <lane id=":2874451103_11_0" index="0" disallow="tram rail_urban rail rail_electric rail_fast ship container cable_car subway aircraft wheelchair scooter drone" speed="3.65" length="3.23" shape="4041.82,4181.00 4041.64,4181.88 4040.83,4182.26 4039.39,4182.14"/>
    </edge>
    <edge id=":2874451103_6" function="internal">
        <lane id=":2874451103_6_0" index="0" disallow="tram rail_urban rail rail_electric rail_fast ship container cable_car subway aircraft wheelchair scooter drone" speed="9.01" length="12.04" shape="4041.46,4193.39 4042.03,4189.63 4041.87,4186.51 4040.99,4184.01 4039.39,4182.14"/>
    </edge>
    <edge id=":2874451103_7" function="internal">
        <lane id=":2874451103_7_0" index="0" disallow="tram rail_urban rail rail_electric rail_fast ship container cable_car subway aircraft wheelchair scooter drone" speed="7.42" length="16.59" shape="4041.46,4193.39 4043.20,4188.75 4045.73,4186.57 4049.07,4186.84 4053.20,4189.57"/>
    </edge>
    <edge id=":2874451103_8" function="internal">